packages/openpy-dsse/openpy_dsse-0.1.1.tar.gz/openpy_dsse-0.1.1/openpy_dsse/examples/37NodeIEEE/OpenDSS files/Lines.DSS
! Lines
New Line.L1     Phases=3 Bus1=701.1.2.3  Bus2=702.1.2.3  LineCode=722  Length=0.96
New Line.L2     Phases=3 Bus1=702.1.2.3  Bus2=705.1.2.3  LineCode=724  Length=0.4
New Line.L3     Phases=3 Bus1=702.1.2.3  Bus2=713.1.2.3  LineCode=723  Length=0.36
New Line.L4     Phases=3 Bus1=702.1.2.3  Bus2=703.1.2.3  LineCode=722  Length=1.32
New Line.L5     Phases=3 Bus1=703.1.2.3  Bus2=727.1.2.3  LineCode=724  Length=0.24
New Line.L6     Phases=3 Bus1=703.1.2.3  Bus2=730.1.2.3  LineCode=723  Length=0.6
New Line.L7     Phases=3 Bus1=704.1.2.3  Bus2=714.1.2.3  LineCode=724  Length=0.08
New Line.L8     Phases=3 Bus1=704.1.2.3  Bus2=720.1.2.3  LineCode=723  Length=0.8
New Line.L9     Phases=3 Bus1=705.1.2.3  Bus2=742.1.2.3  LineCode=724  Length=0.32
New Line.L10    Phases=3 Bus1=705.1.2.3  Bus2=712.1.2.3  LineCode=724  Length=0.24
New Line.L11    Phases=3 Bus1=706.1.2.3  Bus2=725.1.2.3  LineCode=724  Length=0.28
New Line.L12    Phases=3 Bus1=707.1.2.3  Bus2=724.1.2.3  LineCode=724  Length=0.76
New Line.L13    Phases=3 Bus1=707.1.2.3  Bus2=722.1.2.3  LineCode=724  Length=0.12
New Line.L14    Phases=3 Bus1=708.1.2.3  Bus2=733.1.2.3  LineCode=723  Length=0.32
New Line.L15    Phases=3 Bus1=708.1.2.3  Bus2=732.1.2.3  LineCode=724  Length=0.32
New Line.L16    Phases=3 Bus1=709.1.2.3  Bus2=731.1.2.3  LineCode=723  Length=0.6
New Line.L17    Phases=3 Bus1=709.1.2.3  Bus2=708.1.2.3  LineCode=723  Length=0.32
New Line.L18    Phases=3 Bus1=710.1.2.3  Bus2=735.1.2.3  LineCode=724  Length=0.2
New Line.L19    Phases=3 Bus1=710.1.2.3  Bus2=736.1.2.3  LineCode=724  Length=1.28
New Line.L20    Phases=3 Bus1=711.1.2.3  Bus2=741.1.2.3  LineCode=723  Length=0.4
New Line.L21    Phases=3 Bus1=711.1.2.3  Bus2=740.1.2.3  LineCode=724  Length=0.2
New Line.L22    Phases=3 Bus1=713.1.2.3  Bus2=704.1.2.3  LineCode=723  Length=0.52
New Line.L23    Phases=3 Bus1=714.1.2.3  Bus2=718.1.2.3  LineCode=724  Length=0.52
New Line.L24    Phases=3 Bus1=720.1.2.3  Bus2=707.1.2.3  LineCode=724  Length=0.92
New Line.L25    Phases=3 Bus1=720.1.2.3  Bus2=706.1.2.3  LineCode=723  Length=0.6
New Line.L26    Phases=3 Bus1=727.1.2.3  Bus2=744.1.2.3  LineCode=723  Length=0.28
New Line.L27    Phases=3 Bus1=730.1.2.3  Bus2=709.1.2.3  LineCode=723  Length=0.2
New Line.L28    Phases=3 Bus1=733.1.2.3  Bus2=734.1.2.3  LineCode=723  Length=0.56
New Line.L29    Phases=3 Bus1=734.1.2.3  Bus2=737.1.2.3  LineCode=723  Length=0.64
New Line.L30    Phases=3 Bus1=734.1.2.3  Bus2=710.1.2.3  LineCode=724  Length=0.52
New Line.L31    Phases=3 Bus1=737.1.2.3  Bus2=738.1.2.3  LineCode=723  Length=0.4
New Line.L32    Phases=3 Bus1=738.1.2.3  Bus2=711.1.2.3  LineCode=723  Length=0.4
New Line.L33    Phases=3 Bus1=744.1.2.3  Bus2=728.1.2.3  LineCode=724  Length=0.2
New Line.L34    Phases=3 Bus1=744.1.2.3  Bus2=729.1.2.3  LineCode=724  Length=0.28
New Line.L35    Phases=3 Bus1=799.1.2.3 Bus2=701.1.2.3  LineCode=721  Length=1.85
